19
07/19/2024 14:22, XYZ structure generated by mol3D Class, molSimplify
Fe 	0.000000	0.000000	0.000000
O 	0.000000	2.166402	0.000000
H 	0.685027	2.772600	-0.379294
H 	-0.685027	2.772586	0.379294
O 	2.166402	0.000000	0.000000
H 	2.772600	-0.671373	-0.402970
H 	2.772586	0.671373	0.402970
O 	0.000000	-2.166402	0.000000
H 	-0.656900	-2.772600	-0.426155
H 	0.656900	-2.772586	0.426155
O 	-2.166402	0.000000	0.000000
H 	-2.772600	0.641627	-0.448821
H 	-2.772586	-0.641627	0.448821
O 	0.000000	0.000000	2.134863
H 	-0.470940	0.625573	2.741061
H 	0.470940	-0.625573	2.741048
O 	0.000000	0.000000	-2.121832
H 	0.492486	0.608756	-2.728030
H 	-0.492486	-0.608756	-2.728016
